
  xtb     05242217043D
 xtb: 6.4.1 (bd6e46d)
 21 24  0     0  0            999 V2000
    2.7281    4.1180    0.5739 c   0  0  0  0  0  0  0  0  0  0  0  0
    1.2162    2.0539    0.6011 c   0  0  0  0  0  0  0  0  0  0  0  0
    1.9534    3.1223    0.5894 c   0  0  0  0  0  0  0  0  0  0  0  0
    0.3909    1.1918    0.6359 n   0  0  0  0  0  0  0  0  0  0  0  0
    0.1148   -0.1392    0.5997 c   0  0  0  0  0  0  0  0  0  0  0  0
    1.1075   -1.0351    0.4677 c   0  0  0  0  0  0  0  0  0  0  0  0
    2.5721   -1.0447    0.3425 c   0  0  0  0  0  0  0  0  0  0  0  0
    1.5483   -2.6634    0.3552 s   0  0  0  0  0  0  0  0  0  0  0  0
    3.1653   -0.6791   -0.9426 c   0  0  0  0  0  0  0  0  0  0  0  0
    4.3653   -0.1294   -0.9930 c   0  0  0  0  0  0  0  0  0  0  0  0
    4.9205    0.0089    0.1937 c   0  0  0  0  0  0  0  0  0  0  0  0
    4.5709   -0.2438    1.4384 c   0  0  0  0  0  0  0  0  0  0  0  0
    3.3752   -0.7976    1.5382 c   0  0  0  0  0  0  0  0  0  0  0  0
   -1.2418   -0.5121    0.6997 c   0  0  0  0  0  0  0  0  0  0  0  0
   -2.3996   -0.8225    0.8312 c   0  0  0  0  0  0  0  0  0  0  0  0
   -3.7011   -1.1538    0.8924 n   0  0  0  0  0  0  0  0  0  0  0  0
   -4.5795   -0.7109    0.0346 c   0  0  0  0  0  0  0  0  0  0  0  0
   -5.0253   -0.0660   -0.9469 c   0  0  0  0  0  0  0  0  0  0  0  0
   -5.7232    0.4723   -1.8823 c   0  0  0  0  0  0  0  0  0  0  0  0
   -6.4566    1.1832   -3.0624 s   0  0  0  0  0  0  0  0  0  0  0  0
   -3.9938   -1.7792    1.6377 h   0  0  0  0  0  0  0  0  0  0  0  0
  1  3  2  0  0  0  0
  2  3  2  0  0  0  0
  2  4  2  0  0  0  0
  4  5  1  0  0  0  0
  5  6  2  0  0  0  0
  6  7  1  0  0  0  0
  6  8  1  0  0  0  0
  7  8  1  0  0  0  0
  7  9  1  0  0  0  0
  9 10  2  0  0  0  0
 10 11  2  0  0  0  0
  9 12  1  0  0  0  0
 11 12  2  0  0  0  0
  7 13  1  0  0  0  0
 10 13  1  0  0  0  0
 12 13  2  0  0  0  0
  5 14  1  0  0  0  0
 14 15  3  0  0  0  0
 15 16  1  0  0  0  0
 16 17  4  0  0  0  0
 17 18  2  0  0  0  0
 18 19  2  0  0  0  0
 19 20  2  0  0  0  0
 16 21  1  0  0  0  0
M  END
